84
	Energy:     264.3733819
C          0.31475        0.16174        1.72640
C          0.19479       -0.97153        0.87959
C         -1.10670       -1.49416        0.63931
C         -2.29577       -0.94738        1.19689
C         -2.17567        0.18881        2.04473
C         -0.87332        0.70928        2.28529
C          1.30858       -1.62156        0.25187
C          1.12810       -2.75001       -0.58416
C         -0.16795       -3.22595       -0.78076
C         -1.22063       -2.60361       -0.18184
C         -3.54209       -1.58025        0.87111
C         -3.59436       -2.72293        0.03073
C         -2.39710       -3.21987       -0.48851
C          1.56349        0.78883        2.05080
C          1.62073        1.92586        2.89313
C          0.42636        2.42291        3.41426
C         -0.75432        1.81600        3.10934
C         -1.80170        2.44383        3.71392
C         -3.10063        1.97164        3.51528
C         -3.28641        0.84303        2.67526
H         -4.48071       -1.21466        1.25633
H         -4.54044       -3.19462       -0.20301
H          2.32118       -1.27964        0.39256
H          1.97651       -3.23465       -1.05035
H          2.50152        0.42353        1.66516
H          2.56858        2.39353        3.12760
H         -3.94699        2.45803        3.98350
H         -4.29973        0.50232        2.53328
C         -0.64486       -4.25347       -1.48907
C         -2.11927       -4.26452       -1.28156
C          0.12289       -5.23345       -2.33746
C         -0.81521       -6.26307       -2.91037
H          0.87851       -5.74863       -1.70777
H          0.63611       -4.69223       -3.16021
C         -2.29224       -6.30534       -2.67274
C         -3.06418       -5.29203       -1.85905
H         -3.81712       -4.79329       -2.50536
H         -3.58195       -5.81278       -1.02642
C          0.16139        3.46337        4.21030
C         -1.31193        3.46804        4.42578
C          1.12756        4.47010        4.78022
C          0.38190        5.49278        5.59848
H          1.64704        4.98292        3.94375
H          1.87693        3.95696        5.41959
C         -1.09314        5.47839        5.85131
C         -2.05594        4.46129        5.28572
H         -2.80949        4.98938        4.66452
H         -2.56987        3.92789        6.11314
C         -0.48872       -7.29866       -3.69496
C         -2.77801       -7.38819       -3.29972
C         -1.68362       -8.03763       -3.95441
C          0.89917        6.56402        6.21575
C         -1.38660        6.52435        6.63847
C         -0.17111        7.23897        6.88024
C         -1.76119       -9.14855       -4.67476
C         -4.12497       -7.96491       -3.40703
C         -4.27714       -9.10591       -4.12106
C         -3.11805       -9.82394       -4.83352
H         -3.35765       -9.88625       -5.91558
H         -3.04362      -10.85559       -4.42807
C          0.78567       -7.75956       -4.26116
C          0.77942       -8.88177       -5.01795
C         -0.48860       -9.70295       -5.30650
H         -0.32677      -10.73450       -4.92917
H         -0.63435       -9.74751       -6.40658
C         -0.05702        8.35193        7.59247
C          2.26113        7.10739        6.30142
C          2.45055        8.24785        7.00592
C          1.31799        8.99698        7.72836
H          1.26285       10.02715        7.31616
H          1.57428        9.06096        8.80640
C         -1.30708        8.93957        8.23691
C         -2.59747        8.14548        7.97105
H         -1.44950        9.97212        7.85427
H         -1.14451        8.98861        9.33443
C         -2.64121        7.01875        7.22096
H          3.09185        6.61626        5.80530
H          3.45219        8.66240        7.06659
H         -3.51905        8.51560        8.40964
H         -3.57731        6.49408        7.06077
H          1.70656       -7.21357       -4.08410
H          1.71594       -9.22700       -5.44522
H         -4.97423       -7.49766       -2.91962
H         -5.26725       -9.54457       -4.19806
