220
	Energy:     897.9500065
C          0.32321        0.50735        1.33362
C          0.19734       -0.67296        0.55319
C         -1.08590       -1.23051        0.34657
C         -2.24332       -0.67840        0.93880
C         -2.12220        0.50330        1.72003
C         -0.84192        1.08405        1.88498
C          1.30469       -1.37852        0.03176
C          1.13657       -2.57231       -0.68309
C         -0.15854       -3.07761       -0.96780
C         -1.20520       -2.40500       -0.41795
C         -3.45572       -1.39042        0.78268
C         -3.51236       -2.58976        0.05375
C         -2.36518       -3.09400       -0.61418
C          1.56880        1.10502        1.65683
C          1.64771        2.22324        2.50518
C          0.47191        2.81675        3.02191
C         -0.71223        2.21954        2.69483
C         -1.73731        2.79096        3.37762
C         -3.02039        2.21484        3.24510
C         -3.20965        1.10218        2.40766
H         -4.37290       -1.07009        1.24978
H         -4.46346       -3.06480        0.10258
H          2.32076       -1.05821        0.19452
H          2.05770       -3.04885       -0.92751
H          2.50688        0.70300        1.31073
H          2.64329        2.51257        2.75502
H         -3.89003        2.52824        3.77625
H         -4.21043        0.70528        2.35842
C         -0.65808       -4.18846       -1.61002
C         -2.07021       -4.20645       -1.37102
C          0.03402       -5.27654       -2.26724
C         -0.78445       -6.40888       -2.64293
C         -2.20366       -6.43960       -2.38857
C         -2.89454       -5.33771       -1.75415
C          0.19914        3.82446        3.91377
C         -1.20259        3.77091        4.15738
C          1.07878        4.68145        4.68274
C          0.44756        5.41928        5.76264
C         -0.95599        5.29940        6.03021
C         -1.81344        4.50532        5.21361
C         -0.46444       -7.48379       -3.44100
C         -2.73108       -7.54321       -3.02723
C         -1.64872       -8.25624       -3.62293
C          0.93629        6.42750        6.56592
C         -1.31447        6.16917        7.01885
C         -0.13687        6.86619        7.40728
C         -1.74335       -9.40181       -4.31461
C         -4.09586       -8.06472       -3.36290
C         -4.24661       -9.23186       -4.01689
C         -3.08544      -10.06831       -4.50521
H         -3.23529      -10.18866       -5.59945
H         -3.09532      -11.07293       -4.03369
C          0.71740       -7.93318       -4.24604
C          0.69033       -9.09635       -4.92191
C         -0.52086       -9.99950       -4.97250
C         -0.07247        7.82475        8.33793
C          2.20325        7.21996        6.67638
C          2.33451        8.17278        7.61923
C          1.23239        8.54575        8.59133
H          1.04169        9.63069        8.44759
H          1.56695        8.37856        9.63599
C         -1.31958        8.22944        9.09683
C         -2.58544        7.54746        8.61004
H         -1.46660        9.31930        8.94017
H         -1.17990        8.04091       10.18133
C         -2.59687        6.61231        7.64184
H          3.03987        7.12819        6.01107
H          3.26556        8.72991        7.67351
H         -3.56702        6.25821        7.35345
H          1.61292       -7.36346       -4.38492
H          1.56655       -9.39378       -5.49132
H         -5.01304       -7.54983       -3.16692
H         -5.24988       -9.58321       -4.24073
H         -0.28971      -10.99631       -4.54274
H         -0.76070      -10.12478       -6.04991
C         -3.13715        4.40563        5.46176
C          2.42426        4.76936        4.42249
C         -4.25331       -5.35960       -1.54315
C          1.38404       -5.22763       -2.53486
C         -4.11492        4.77436        4.42031
C         -3.62504        3.97074        6.78484
C         -4.94402        3.83920        7.05403
C         -5.97231        4.27599        6.00600
C         -5.44174        4.78084        4.66550
H         -2.86429        3.67969        7.49771
H         -3.72733        5.13832        3.47374
H         -6.56495        5.09043        6.46439
H         -6.63207        3.42068        5.76824
C          2.94513        4.78580        3.03496
C          3.42262        4.89384        5.50690
C          4.75265        5.01910        5.29167
C          5.27772        5.06981        3.86031
C          4.25407        4.94679        2.74014
H          5.99645        4.23998        3.72317
H          5.79349        6.04019        3.73076
H          3.03827        4.81595        6.51243
H         -3.52902        7.85333        9.05274
C         -4.96568       -6.57788       -1.07911
C         -5.08624       -4.16351       -1.80248
C         -6.43482       -4.15216       -1.68574
C         -6.30780       -6.63105       -0.91152
C         -7.16035       -5.41522       -1.23586
H         -7.70295       -5.16096       -0.30635
H         -7.87834       -5.71366       -2.02360
H         -4.36253       -7.43924       -0.81367
H         -4.56530       -3.29265       -2.17196
C          2.27973       -6.40338       -2.40081
C          2.01131       -3.97216       -3.01264
C          3.32292       -3.85483       -3.31762
C          4.23560       -5.06712       -3.17454
C          3.60414       -6.36098       -2.67955
H          5.02978       -4.80251       -2.45121
H          4.68223       -5.28089       -4.16407
H          2.22507        4.74654        2.22568
H          1.34430       -3.13632       -3.15815
H          1.85179       -7.31890       -2.00742
C         -6.40902        5.34076        3.59464
C         -5.44925        3.23964        8.39708
C         -7.89119        5.26386        4.03664
C         -4.30444        2.78046        9.33717
H         -3.68284        1.99696        8.84943
H         -4.71268        2.33908       10.27238
H         -3.65633        3.63445        9.62839
C         -6.31659        1.99241        8.10634
H         -5.73151        1.23466        7.54004
H         -7.22488        2.24385        7.52221
H         -6.66837        1.52361        9.05069
C         -6.29329        4.27883        9.15753
H         -5.68373        5.18072        9.38028
H         -6.65909        3.85597       10.11872
H         -7.18569        4.58516        8.57465
H         -8.20267        4.21273        4.21111
H         -8.55618        5.68611        3.25202
H         -8.07033        5.85255        4.96141
C         -6.26738        4.55902        2.27252
H         -6.50987        3.48674        2.42889
H         -5.23971        4.63007        1.86049
H         -6.95807        4.96912        1.50348
C         -6.07684        6.83312        3.35472
H         -6.18180        7.40891        4.30108
H         -6.76245        7.27877        2.60212
H         -5.03991        6.97296        2.98444
C          5.77256        5.10999        6.46576
C          4.70234        5.04066        1.25892
C          5.12008        4.99155        7.86795
H          4.39409        5.81316        8.04547
H          5.88849        5.05613        8.66891
H          4.60432        4.01343        7.98425
C          6.80920        3.97115        6.35063
H          6.30385        2.98154        6.37489
H          7.53568        4.01270        7.19123
H          7.40206        4.04516        5.41636
C          6.50358        6.46762        6.41281
H          5.77393        7.30225        6.49606
H          7.07715        6.59095        5.47187
H          7.23035        6.55643        7.24950
C          4.28493        3.76867        0.48944
H          4.74592        2.86791        0.94843
H          4.61170        3.82782       -0.57157
H          3.18416        3.63530        0.48167
C          6.23745        5.19156        1.11214
H          6.76879        4.31545        1.54057
H          6.60494        6.11498        1.60726
H          6.52396        5.26104        0.04012
C          4.04874        6.27875        0.60541
H          2.94089        6.21833        0.62159
H          4.36164        6.37711       -0.45662
H          4.35196        7.20334        1.14373
C          3.93395       -2.51190       -3.81694
C          4.48709       -7.62063       -2.46830
C         -6.97723       -7.91494       -0.35148
C         -7.28297       -2.88763       -2.01066
C          5.03526       -2.04978       -2.83844
H          4.61387       -1.91151       -1.81878
H          5.47512       -1.08317       -3.16719
H          5.86978       -2.77776       -2.78141
C          2.90247       -1.35769       -3.91942
H          2.44976       -1.13706       -2.92865
H          2.09741       -1.60395       -4.64513
H          3.38840       -0.42242       -4.27303
C          4.54803       -2.70401       -5.21917
H          5.37182       -3.44623       -5.21035
H          4.97893       -1.75006       -5.59376
H          3.77119       -3.04234       -5.93844
C          3.93311       -8.81621       -3.27333
H          2.91494       -9.09830       -2.93846
H          4.57406       -9.71417       -3.13595
H          3.90017       -8.57474       -4.35736
C          4.51180       -7.98026       -0.96822
H          3.49457       -8.20144       -0.58375
H          4.93147       -7.13667       -0.37798
H          5.14367       -8.87725       -0.78819
C          5.95209       -7.40200       -2.92607
H          5.99926       -7.16914       -4.01156
H          6.55700       -8.32017       -2.76084
H          6.44173       -6.58303       -2.35930
C         -8.15582       -2.51129       -0.79313
H         -8.88207       -3.31233       -0.54425
H         -8.75509       -1.59911       -1.00412
H         -7.51991       -2.31557        0.09704
C         -6.42986       -1.64156       -2.36159
H         -5.76365       -1.36887       -1.51460
H         -7.07991       -0.76374       -2.56854
H         -5.81710       -1.81326       -3.27223
C         -8.19859       -3.17669       -3.21873
H         -8.90707       -4.00448       -3.01364
H         -7.58837       -3.44686       -4.10797
H         -8.80793       -2.28276       -3.47440
C         -6.51104       -8.12438        1.10424
H         -5.40978       -8.24672        1.16680
H         -6.98098       -9.03052        1.54461
H         -6.79889       -7.24919        1.72762
C         -6.60054       -9.15143       -1.19628
H         -5.50833       -9.34177       -1.18434
H         -6.92930       -9.01973       -2.24878
H         -7.08831      -10.06490       -0.79086
C         -8.52539       -7.82276       -0.34287
H         -8.88698       -6.98458        0.28815
H         -8.97288       -8.75365        0.06874
H         -8.92005       -7.69452       -1.37376
