54
dc_opt.out	Energy: -867739.7164438 (Gaussian)
C          0.26686        2.86199        0.13336
C         -0.45601        4.01530        0.39187
C          0.21909        5.26727        0.43598
C          1.58270        5.38266        0.22523
C          2.36342        4.21380       -0.00155
C          3.76771        4.15644       -0.22972
C          4.37981        2.93223       -0.43886
C          3.66324        1.70361       -0.39184
C          2.30243        1.71989       -0.13213
C          1.67519        2.98707       -0.00009
C         -0.03392        1.41902        0.02654
C          1.22792        0.71125       -0.02376
C          1.24548       -0.68022        0.02627
C          2.34499       -1.66177        0.13368
C          3.70514       -1.61176        0.39257
C          4.45219       -2.82216        0.43777
C          3.87063       -4.06102        0.22764
C          2.46810       -4.15323        0.00038
C          1.74946       -2.94409        0.00069
H         -1.51843        3.99339        0.59200
H         -0.36520        6.16102        0.63660
H          2.06178        6.35797        0.24472
H          4.35030        5.07364       -0.25132
H          5.44687        2.89908       -0.64064
H          4.19810        0.78512       -0.59096
H          4.21678       -0.68025        0.59212
H          5.51823       -2.76263        0.63888
H          4.47587       -4.96346        0.24793
C         -1.23025        0.70801       -0.02356
C         -2.64114        1.13412       -0.13086
C         -3.30782        2.32098       -0.38843
C         -4.73013        2.32720       -0.43418
C         -5.48394        1.18462       -0.22602
C         -4.83119       -0.06041       -0.00026
C         -5.45303       -1.32131        0.22467
C         -4.67117       -2.44490        0.43276
C         -3.24940       -2.40331        0.38818
C         -2.61210       -1.20012        0.13190
C         -3.42473       -0.04292        0.00045
C         -1.21212       -0.73876        0.02573
C          0.00173       -1.41932       -0.02424
C          1.71692       -5.34112       -0.22728
C          0.35075       -5.25974       -0.43719
C         -0.35540       -4.02504       -0.39142
C          0.33842       -2.85419       -0.13209
H         -1.41815       -4.02968       -0.59094
H         -0.21115       -6.16757       -0.63854
H          2.22033       -6.30408       -0.24815
H         -2.69922       -3.31294        0.58600
H         -5.15280       -3.39831        0.63144
H         -6.53722       -1.39406        0.24436
H         -6.56958        1.23045       -0.24654
H         -5.23522        3.26820       -0.63379
H         -2.78012        3.24381       -0.58638
