126
htbdc_opt.out	Energy: -1459917.9651174 (Gaussian)
C          2.40879       -4.17227        0.25338
C          3.81881       -4.09422        0.43858
H          4.37175       -5.02099        0.54185
C          4.46332       -2.86708        0.52361
C          3.70364       -1.65808        0.39680
H          4.21235       -0.71696        0.54027
C          2.34422       -1.69212        0.14649
C          1.25664       -0.69642        0.02112
C          1.25655        0.69660       -0.02106
C          2.34398        1.69248       -0.14639
C          3.70342        1.65864       -0.39664
H          4.21231        0.71759       -0.54000
C          4.46289        2.86776       -0.52351
C          3.81817        4.09479       -0.43861
H          4.37097        5.02164       -0.54194
C          2.40814        4.17263       -0.25345
C          1.62540        5.36247       -0.26731
H          2.14045        6.31154       -0.36528
C          0.23989        5.30871       -0.19415
C         -0.41508        4.03846       -0.08377
H         -1.49364        4.01668       -0.10326
C          0.31183        2.86574       -0.00117
C          0.00253        1.41932        0.05249
C         -1.20057        0.71792        0.09754
C         -2.60812        1.14712        0.25618
C         -3.26764        2.30000        0.64005
H         -2.71292        3.17886        0.93332
C         -4.69971        2.34580        0.70005
C         -5.43790        1.21861        0.36170
H         -6.52177        1.23875        0.37807
C         -4.79554       -0.00035        0.00008
C         -5.43775       -1.21941       -0.36149
H         -6.52162       -1.23969       -0.37779
C         -4.69941       -2.34649       -0.69991
C         -3.26735       -2.30047       -0.64001
H         -2.71252       -3.17925       -0.93333
C         -2.60796       -1.14750       -0.25616
C         -1.20047       -0.71810       -0.09755
C          0.00274       -1.41933       -0.05250
C          0.31226       -2.86570        0.00114
C         -0.41445       -4.03855        0.08362
H         -1.49300       -4.01697        0.10309
C          0.24074       -5.30870        0.19390
C          1.62626       -5.36224        0.26710
H          2.14145       -6.31124        0.36498
C          1.72243       -2.96405        0.09543
C          1.72199        2.96430       -0.09540
C         -3.39782       -0.00025        0.00003
C          5.98076       -2.74640        0.75759
C          6.66749       -4.11758        0.90585
H          6.54954       -4.73026        0.00560
H          6.27380       -4.67826        1.76052
H          7.74087       -3.97411        1.06957
C          6.62451       -2.01862       -0.44769
H          6.46094       -2.58187       -1.37281
H          7.70496       -1.91070       -0.29613
H          6.20961       -1.01754       -0.58929
C          6.24547       -1.93872        2.05187
H          5.83070       -0.92803        2.00213
H          7.32395       -1.84485        2.22471
H          5.80097       -2.44003        2.91835
C          5.98036        2.74733       -0.75744
C          6.24524        1.93961       -2.05165
H          5.80059        2.44074       -2.91817
H          5.83072        0.92882       -2.00182
H          7.32373        1.84600       -2.22451
C          6.62420        2.01975        0.44791
H          6.46052        2.58304        1.37299
H          7.70467        1.91199        0.29638
H          6.20946        1.01861        0.58958
C          6.66684        4.11862       -0.90578
H          6.27311        4.67913       -1.76053
H          7.74026        3.97535       -1.06942
H          6.54873        4.73138       -0.00560
C         -0.64013        6.57132       -0.24353
C          0.18726        7.86638       -0.35344
H          0.78560        7.89004       -1.27062
H          0.85952        7.99231        0.50221
H         -0.48578        8.73012       -0.37569
C         -1.48652        6.65651        1.05035
H         -2.12766        5.78062        1.18108
H         -2.13528        7.53979        1.02392
H         -0.84007        6.73034        1.93157
C         -1.57710        6.49840       -1.47418
H         -2.22566        5.61836       -1.44914
H         -0.99412        6.45613       -2.40052
H         -2.22141        7.38448       -1.51309
C         -5.36457        3.67116        1.11797
C         -4.82814        4.11293        2.50165
H         -5.30244        5.05279        2.80672
H         -3.74685        4.27822        2.49388
H         -5.04623        3.35557        3.26226
C         -5.03410        4.75821        0.06699
H         -5.42009        4.47598       -0.91855
H         -3.95718        4.91592       -0.02928
H         -5.48502        5.71598        0.35251
C         -6.89771        3.55694        1.21958
H         -7.35147        3.29791        0.25700
H         -7.31682        4.51950        1.53157
H         -7.19980        2.80657        1.95827
C         -5.36410       -3.67194       -1.11777
C         -6.89727       -3.55796       -1.21917
H         -7.35094       -3.29898       -0.25654
H         -7.31628       -4.52060       -1.53107
H         -7.19959       -2.80767       -1.95784
C         -4.82777       -4.11358       -2.50153
H         -3.74646       -4.27874       -2.49389
H         -5.04604       -3.35621       -3.26208
H         -5.30198       -5.05349       -2.80659
C         -5.03331       -4.75898       -0.06687
H         -3.95636       -4.91662        0.02915
H         -5.48423       -5.71678       -0.35229
H         -5.41909       -4.47679        0.91876
C         -0.63907       -6.57147        0.24315
C          0.18852       -7.86640        0.35296
H          0.86080       -7.99216       -0.50270
H         -0.48437       -8.73026        0.37516
H          0.78686       -7.89003        1.27014
C         -1.57606       -6.49879        1.47380
H         -2.22474       -5.61885        1.44883
H         -0.99310       -6.45653        2.40014
H         -2.22025       -7.38497        1.51262
C         -1.48544       -6.65669       -1.05074
H         -0.83898       -6.73031       -1.93197
H         -2.12675       -5.78090       -1.18138
H         -2.13404       -7.54009       -1.02440
